OPT_V10/Two_days_MYC3_SOS/powerflow_results_t28.txt
Pandapower Network Debug Info
==================================================

BUS:
       vm_pu  va_degree      p_mw    q_mvar
0   0.993111   0.114506  0.001068  0.001073
1   0.988877   0.165699  0.001407  0.001925
2   0.985062   0.200556  0.002265  0.002421
3   0.989442   0.211886  0.002167  0.004191
4   0.999886   0.000666  0.008850  0.008806
5   0.999872   0.000701  0.012312  0.010510
6   0.999862   0.000725  0.012122  0.010303
7   0.999930   0.000504  0.000000  0.000000
8   0.999930   0.000510  0.000000  0.000000
9   1.000000   0.000000 -0.040330 -0.044320
10  1.000000   0.000006  0.000000  0.000000
--------------------------------------------------

LINE:
   p_from_mw  q_from_mvar   p_to_mw  q_to_mvar         pl_mw       ql_mvar  i_from_ka   i_to_ka      i_ka  vm_from_pu  va_from_degree  vm_to_pu  va_to_degree  loading_percent
0   0.040320     0.040320 -0.040316  -0.040318  3.180304e-06  2.479736e-06   0.002195  0.002195  0.002195    1.000000        0.000006  0.999930      0.000504         0.954236
1   0.033287     0.029620 -0.033285  -0.029619  1.535456e-06  1.197220e-06   0.001715  0.001715  0.001715    0.999930        0.000504  0.999886      0.000666         0.745710
2   0.007020     0.009698 -0.006953  -0.009645  6.704578e-05  5.227670e-05   0.017281  0.017281  0.017281    0.999930        0.000510  0.993111      0.114506         7.513530
3  -0.024434    -0.020813  0.024435   0.020813  3.563640e-07  2.778629e-07   0.001236  0.001236  0.001236    0.999872        0.000701  0.999886      0.000666         0.537206
4  -0.012122    -0.010303  0.012122   0.010303  1.238151e-07  9.654065e-08   0.000612  0.000612  0.000612    0.999862        0.000725  0.999872      0.000701         0.266270
5  -0.003682    -0.004354  0.003702   0.004369  1.967272e-05  1.533914e-05   0.008323  0.008323  0.008323    0.988877        0.165699  0.993111      0.114506         3.618766
6  -0.002167    -0.004191  0.002183   0.004203  1.518443e-05  1.183955e-05   0.006883  0.006883  0.006883    0.989442        0.211886  0.993111      0.114506         2.992713
7  -0.002265    -0.002421  0.002276   0.002429  1.024940e-05  7.991623e-06   0.004858  0.004858  0.004858    0.985062        0.200556  0.988877      0.165699         2.112389
--------------------------------------------------

TRAFO:
   p_hv_mw  q_hv_mvar  p_lv_mw  q_lv_mvar    pl_mw  ql_mvar   i_hv_ka   i_lv_ka  vm_hv_pu  va_hv_degree  vm_lv_pu  va_lv_degree  loading_percent
0  0.00703   0.010698 -0.00702  -0.009698  0.00001    0.001  0.000493  0.017281   0.99993      0.000504   0.99993      0.000510         0.128016
1  0.04033   0.044320 -0.04032  -0.040320  0.00001    0.004  0.000494  0.002195   1.00000      0.000000   1.00000      0.000006         0.149808
--------------------------------------------------
